Version 4
SHEET 1 3348 2688
WIRE 784 256 768 256
WIRE 864 256 848 256
WIRE 1168 256 864 256
WIRE 1312 256 1296 256
WIRE 1408 256 1392 256
WIRE 1504 256 1408 256
WIRE 1744 256 1584 256
WIRE 768 288 768 256
WIRE 864 304 864 256
WIRE 464 320 304 320
WIRE 640 320 544 320
WIRE 1296 320 1296 256
WIRE -80 368 -208 368
WIRE -80 400 -128 400
WIRE 864 416 864 384
WIRE 864 416 752 416
WIRE 928 416 864 416
WIRE 1456 416 1392 416
WIRE 928 448 864 448
WIRE 1408 448 1408 256
WIRE 1456 448 1408 448
WIRE 1744 448 1744 256
WIRE 1744 448 1568 448
WIRE 1760 448 1744 448
WIRE 1888 448 1824 448
WIRE 2048 448 1888 448
WIRE 352 464 320 464
WIRE 1168 464 1168 256
WIRE 1168 464 1072 464
WIRE 2048 480 2016 480
WIRE -128 496 -128 400
WIRE 128 496 -128 496
WIRE 304 496 304 320
WIRE 304 496 208 496
WIRE 352 496 304 496
WIRE 640 496 640 320
WIRE 640 496 464 496
WIRE 672 496 640 496
WIRE 752 496 752 416
WIRE 752 496 736 496
WIRE 864 528 864 448
WIRE 1296 528 864 528
WIRE 1392 528 1392 416
WIRE 1392 528 1296 528
WIRE 1888 528 1888 448
WIRE 1296 576 1296 528
WIRE 1392 576 1392 528
WIRE 2016 576 2016 480
WIRE 2224 576 2016 576
WIRE 320 592 320 464
WIRE 320 592 240 592
WIRE 240 608 240 592
WIRE 320 608 320 592
WIRE -208 640 -208 368
WIRE 1888 672 1888 608
WIRE 240 704 240 672
WIRE 320 704 320 688
WIRE 320 704 240 704
WIRE 1296 704 1296 640
WIRE 1392 704 1392 656
WIRE 1392 704 1296 704
WIRE 320 736 320 704
WIRE 1392 736 1392 704
WIRE -208 768 -208 720
FLAG -208 768 0
FLAG 320 736 0
FLAG 768 288 0
FLAG 1296 320 0
FLAG 1392 736 0
FLAG 1888 672 0
FLAG -64 160 0
FLAG 96 160 0
FLAG -64 80 5V+
FLAG 96 80 5V-
FLAG 64 352 5V+
FLAG 64 384 5V-
FLAG 352 528 5V+
FLAG 464 464 5V-
FLAG 1456 480 5V+
FLAG 1568 416 5V-
FLAG 2192 432 5V+
FLAG 2192 464 5V-
FLAG 1072 400 5V+
FLAG 2224 656 Vout
FLAG -208 288 0
FLAG 1072 432 5V-
SYMBOL res 880 400 R180
WINDOW 0 36 76 Left 2
WINDOW 3 36 40 Left 2
SYMATTR InstName R2
SYMATTR Value 3.3k
SYMBOL Res 560 304 R90
WINDOW 0 0 56 VBottom 2
WINDOW 3 32 56 VTop 2
SYMATTR InstName R4
SYMATTR Value 470
SYMBOL Res 1408 672 R180
WINDOW 0 -49 89 Left 2
WINDOW 3 -48 62 Left 2
SYMATTR InstName R5
SYMATTR Value 39
SYMBOL res 1872 512 R0
SYMATTR InstName R6
SYMATTR Value 1k
SYMBOL cap 784 272 R270
WINDOW 0 32 32 VTop 2
WINDOW 3 0 32 VBottom 2
SYMATTR InstName C1
SYMATTR Value 1µ
SYMBOL Res 1600 240 R90
WINDOW 0 0 56 VBottom 2
WINDOW 3 32 56 VTop 2
SYMATTR InstName R7
SYMATTR Value 470
SYMBOL Cap 1760 464 R270
WINDOW 0 32 32 VTop 2
WINDOW 3 0 32 VBottom 2
SYMATTR InstName C2
SYMATTR Value 100p
SYMBOL Cap 1280 576 R0
WINDOW 0 45 12 Left 2
WINDOW 3 38 39 Left 2
SYMATTR InstName C3
SYMATTR Value 43p
SYMBOL Cap 224 608 R0
SYMATTR InstName C4
SYMATTR Value 43p
SYMBOL Cap 736 480 R90
WINDOW 0 0 32 VBottom 2
WINDOW 3 32 32 VTop 2
SYMATTR InstName C5
SYMATTR Value 2.2n
SYMBOL AutoGenerated/OPA847_Model 400 496 R0
WINDOW 3 48 62 Top 2
SYMATTR InstName U1
SYMBOL AutoGenerated/OPA847_Model 1504 448 R0
SYMATTR InstName U2
SYMBOL Res -224 624 R0
SYMATTR InstName R8
SYMATTR Value 50
SYMBOL Res 304 592 R0
SYMATTR InstName R10
SYMATTR Value 39
SYMBOL Res 1408 240 R90
WINDOW 0 0 56 VBottom 2
WINDOW 3 32 56 VTop 2
SYMATTR InstName R1
SYMATTR Value 39
SYMBOL Voltage -64 64 R0
SYMATTR InstName V3
SYMATTR Value 5
SYMBOL Voltage 96 64 R0
SYMATTR InstName V4
SYMATTR Value -5
SYMBOL AutoGenerated/BUF602 -16 384 R0
SYMATTR InstName U3
SYMBOL AutoGenerated/BUF602 992 432 R0
SYMATTR InstName U4
SYMBOL AutoGenerated/BUF602 2112 464 R0
SYMATTR InstName U5
SYMBOL Res 2208 560 R0
WINDOW 3 43 66 Left 2
SYMATTR Value 50
SYMATTR InstName R3
SYMBOL voltage -208 272 R0
WINDOW 3 40 -28 Left 2
SYMATTR Value PULSE(0 0.5 0 1n 20ns 2ns)
SYMATTR InstName V1
SYMATTR Value2 AC 1
SYMBOL Res 224 480 R90
WINDOW 0 0 56 VBottom 2
WINDOW 3 32 56 VTop 2
SYMATTR InstName R9
SYMATTR Value 39
TEXT -144 824 Left 2 !.tran 0 200n 0 0.1n
