Version 4
SHEET 1 3348 2688
WIRE 1536 320 1440 320
WIRE 1696 320 1600 320
WIRE 896 368 752 368
WIRE 1088 368 960 368
WIRE 1440 432 1440 320
WIRE 1440 432 1408 432
WIRE 1536 432 1440 432
WIRE 1696 432 1696 320
WIRE 1696 432 1616 432
WIRE 752 480 752 368
WIRE 880 480 752 480
WIRE 1088 480 1088 368
WIRE 1088 480 960 480
WIRE 224 528 224 496
WIRE 368 528 224 528
WIRE 368 560 320 560
WIRE 544 576 512 576
WIRE 544 592 544 576
WIRE 1472 624 1360 624
WIRE 896 640 832 640
WIRE 320 656 320 560
WIRE 560 656 320 656
WIRE 752 656 752 480
WIRE 752 656 640 656
WIRE 832 656 832 640
WIRE 832 656 752 656
WIRE 1088 656 1088 480
WIRE 1088 656 960 656
WIRE 1200 656 1088 656
WIRE 1360 656 1360 624
WIRE 1360 656 1280 656
WIRE 1440 656 1440 432
WIRE 1472 656 1440 656
WIRE 1696 656 1696 432
WIRE 1696 656 1600 656
WIRE 1776 656 1696 656
WIRE 1888 656 1840 656
WIRE 224 672 224 528
WIRE 896 672 864 672
WIRE 1888 672 1888 656
WIRE 864 752 864 672
WIRE 864 768 864 752
WIRE 1888 784 1888 752
WIRE 224 800 224 752
FLAG 208 240 0
FLAG 368 240 0
FLAG 208 160 5V+
FLAG 368 160 5V-
FLAG 224 800 0
FLAG 928 624 5V+
FLAG 928 688 5V-
FLAG 512 512 5V+
FLAG 512 544 5V-
FLAG 224 416 0
FLAG 1328 432 0
FLAG 1472 688 5V+
FLAG 1600 624 5V-
FLAG 864 752 0
FLAG 544 592 0
FLAG 1888 784 0
SYMBOL Voltage 208 144 R0
SYMATTR InstName V3
SYMATTR Value 5
SYMBOL Voltage 368 144 R0
SYMATTR InstName V4
SYMATTR Value -5
SYMBOL Res 976 464 R90
WINDOW 0 0 56 VBottom 2
WINDOW 3 32 56 VTop 2
SYMATTR InstName R12
SYMATTR Value 1k
SYMBOL Res 208 656 R0
SYMATTR InstName R23
SYMATTR Value 50
SYMBOL Res 656 640 R90
WINDOW 0 0 56 VBottom 2
WINDOW 3 32 56 VTop 2
SYMATTR InstName R25
SYMATTR Value 49
SYMBOL AutoGenerated/BUF602 432 544 R0
SYMATTR InstName U11
SYMBOL voltage 224 400 R0
WINDOW 3 40 -28 Left 2
SYMATTR Value PULSE(0 0.5 0 1n 20ns 2ns)
SYMATTR InstName V6
SYMBOL Cap 960 352 R90
WINDOW 0 0 32 VBottom 2
WINDOW 3 32 32 VTop 2
SYMATTR InstName C10
SYMATTR Value 33p
SYMBOL AutoGenerated/AD8038 1536 656 R0
SYMATTR InstName U10
SYMBOL Res 1296 640 R90
WINDOW 0 0 56 VBottom 2
WINDOW 3 32 56 VTop 2
SYMATTR InstName R26
SYMATTR Value 50
SYMBOL Res 1424 416 R90
WINDOW 0 0 56 VBottom 2
WINDOW 3 32 56 VTop 2
SYMATTR InstName R28
SYMATTR Value 49
SYMBOL Res 1632 416 R90
WINDOW 0 0 56 VBottom 2
WINDOW 3 32 56 VTop 2
SYMATTR InstName R29
SYMATTR Value 1k
SYMBOL Cap 1600 304 R90
WINDOW 0 0 32 VBottom 2
WINDOW 3 32 32 VTop 2
SYMATTR InstName C12
SYMATTR Value 2.2p
SYMBOL OpAmps/LT1819 928 656 R0
SYMATTR InstName U12
SYMBOL Res 1872 656 R0
SYMATTR InstName R24
SYMATTR Value 50
SYMBOL Cap 1840 640 R90
WINDOW 0 0 32 VBottom 2
WINDOW 3 32 32 VTop 2
SYMATTR InstName C8
SYMATTR Value 1ľ
TEXT 240 888 Left 2 !.tran 0 200n 0 0.1n
